# Packages
 &PACKAGES
 useCAL=.TRUE.,
 useDIAGNOSTICS=.TRUE.,
 useEXF=.TRUE.,
 useGGL90=.TRUE.,
 useGMREDI=.TRUE.,
 &