# ====================
# | Model parameters |
# ====================

# Continuous equation parameters
 &PARM01
 &

# Elliptic solver parameters
 &PARM02
 &

# Time stepping parameters
 &PARM03
 &

# Gridding parameters
 &PARM04
 usingSphericalPolarGrid=.TRUE.,
 delX=0.5,
 delY=0.5,
 xgOrigin=-180,
 ygOrigin=-90,
 &

# Input datasets
 &PARM05
 bathyFile = 'global_bathymetry.bin',
 &
